
**** 11/16/24 12:11:28 *** PSpice 24.1.0 (4 September 2024) *** ID# 0 ********

 ** Profile: "SCHEMATIC1-Temperatura"  [ C:\Proiect 1\P1_Fraticiu_Vlad_2024_423D\Schematic\Schematic\stabilizator_ers_-pspicefiles\sc


 ****     CIRCUIT DESCRIPTION


******************************************************************************




** Creating circuit file "Temperatura.cir" 
** WARNING: THIS AUTOMATICALLY GENERATED FILE MAY BE OVERWRITTEN BY SUBSEQUENT SIMULATIONS

*Libraries: 
* Profile Libraries :
* Local Libraries :
.LIB "c:/proiect 1/lib_modelepspice_anexa_1/modele_a1_lib/1n4148.lib" 
.LIB "c:/proiect 1/lib_modelepspice_anexa_1/modele_a1_lib/bc807-25.lib" 
.LIB "c:/proiect 1/lib_modelepspice_anexa_1/modele_a1_lib/bc817-25.lib" 
.LIB "c:/proiect 1/lib_modelepspice_anexa_1/modele_a1_lib/bc846b.lib" 
.LIB "c:/proiect 1/lib_modelepspice_anexa_1/modele_a1_lib/bc856b.lib" 
.LIB "c:/proiect 1/lib_modelepspice_anexa_1/modele_a1_lib/bzx84c2v7.lib" 
.LIB "c:/proiect 1/lib_modelepspice_anexa_1/modele_a1_lib/bzx84c5v1.lib" 
.LIB "c:/proiect 1/lib_modelepspice_anexa_1/modele_a1_lib/bzx84c5v6.lib" 
.LIB "c:/proiect 1/lib_modelepspice_anexa_1/modele_a1_lib/bzx84c6v2.lib" 
.LIB "c:/proiect 1/lib_modelepspice_anexa_1/modele_a1_lib/bzx84c6v8.lib" 
.LIB "c:/proiect 1/lib_modelepspice_anexa_1/modele_a1_lib/bzx84c8v2.lib" 
.LIB "c:/proiect 1/lib_modelepspice_anexa_1/modele_a1_lib/bzx84c10.lib" 
.LIB "c:/proiect 1/lib_modelepspice_anexa_1/modele_a1_lib/irfr120npbf.lib" 
.LIB "c:/proiect 1/lib_modelepspice_anexa_1/modele_a1_lib/mjd31cg.lib" 
.LIB "c:/proiect 1/lib_modelepspice_anexa_1/modele_a1_lib/mjd32cg.lib" 
.LIB "c:/proiect 1/lib_modelepspice_anexa_1/modele_a1_lib/mmbfj177lt1g.lib" 
.LIB "c:/proiect 1/lib_modelepspice_anexa_1/modele_a1_lib/mmbfj309lt1g.lib" 
* From [PSPICE NETLIST] section of C:\Users\frati\AppData\Roaming\SPB_Data\cdssetup\OrCAD_PSpice\24.1.0\PSpice.ini file:
.lib "nom.lib" 

*Analysis directives: 
.DC LIN TEMP 0 150 1 
.OPTIONS ADVCONV
.PROBE64 V(alias(*)) I(alias(*)) W(alias(*)) D(alias(*)) NOISE(alias(*)) 
.INC "..\SCHEMATIC1.net" 



**** INCLUDING SCHEMATIC1.net ****
* source STABILIZATOR_ERS_
R_R34         N58477 N58211  1.5k TC=0,0 
R_R1         0 N58341  3.3k TC=0,0 
R_R16         N58365 N58115  68 TC=0,0 
Q_Q20         N58477 N58351 N58019 QBC856B 
D_D6         0 N58533 BZX84-C5V1 
Q_Q16         N58351 N58329 N58019 QBC856B 
Q_Q18         N58351 N58533 N58697 QBC846B 
Q_Q26         N58211 N64633 0 QBC846B 
Q_Q7         N58329 N58691 N58697 QBC846B 
R_R32         N62642 N58533  15k TC=0,0 
R_R3         0 N58791  2.2k TC=0,0 
R_R7         0 N58833  440 TC=0,0 
R_R31         N58109 N58115  0.47 TC=0,0 
R_R28         N58485 N58365  1.5k TC=0,0 
Q_Q29         N58083 N58141 N58019 QMJD32CT4G 
Q_Q17         N58329 N58329 N58019 QBC856B 
Q_Q5         N58533 N58341 N58249 QBC807-25 
D_D7         N58341 N58019 BZX84-C5V1 
X_R27         N58707 N58691 N58485 POT PARAMS: SET={Pot_SET} VALUE=10k
V_V1         N58019 0 19.8
Q_Q19         N58477 N58533 N58833 QBC846B 
R_R2         N58249 N58019  820 TC=0,0 
R_R22         N58115 0  {Rload} TC=0,0 
R_R8         0 N58707  10k TC=0,0 
Q_Q6         N58697 N58533 N58791 QBC846B 
Q_Q23         N58211 N58083 N58115 QBC846B 
R_R30         N58083 N58109  1 TC=0,0 
Q_Q25         N58141 N58211 N58083 QBC846B 
X_R36         N62642 N64633 0 POT PARAMS: SET=0.454 VALUE=5k
X_D9         N70066 0 LED PARAMS: IS=5.6404e-29 RS=2  BV=5 IBV=10e-6         
R_R37         N70062 N70320  330 TC=0,0 
X_D10         N73472 0 LED PARAMS: IS=5.6404e-29 RS=2  BV=5 IBV=10e-6         
R_R39         N73472 N69956  220 TC=0,0 
R_R40         N69761 N58115  100 TC=0,0 
R_R41         N69952 N69761  100 TC=0,0 
R_R42         N69956 N69952  100 TC=0,0 
R_R43         N70066 N70062  220 TC=0,0 
R_R44         N70316 N58019  330 TC=0,0 
R_R45         N70320 N70316  330 TC=0,0 
.PARAM  pot_set=1 rload=440

**** RESUMING Temperatura.cir ****
.END

**** 11/16/24 12:11:28 *** PSpice 24.1.0 (4 September 2024) *** ID# 0 ********

 ** Profile: "SCHEMATIC1-Temperatura"  [ C:\Proiect 1\P1_Fraticiu_Vlad_2024_423D\Schematic\Schematic\stabilizator_ers_-pspicefiles\sc


 ****     Diode MODEL PARAMETERS


******************************************************************************




               BZX84-C5V1      X_D9.model201   X_D10.model201  
          IS    2.666500E-18   56.404000E-30   56.404000E-30 
           N     .82284         2               2            
         ISR  150.400000E-12                                 
         IKF     .01176                                      
          BV    5.176           5               5            
         IBV     .10454        10.000000E-06   10.000000E-06 
          RS     .51617         2               2            
          TT   43.858000E-09                                 
         CJO  232.290000E-12                                 
          VJ     .79587                                      
           M     .35004                                      


**** 11/16/24 12:11:28 *** PSpice 24.1.0 (4 September 2024) *** ID# 0 ********

 ** Profile: "SCHEMATIC1-Temperatura"  [ C:\Proiect 1\P1_Fraticiu_Vlad_2024_423D\Schematic\Schematic\stabilizator_ers_-pspicefiles\sc


 ****     BJT MODEL PARAMETERS


******************************************************************************




               QBC807-25       QBC846B         QBC856B         QMJD32CT4G      
               PNP             NPN             PNP             PNP             
       LEVEL    1               1               1               1            
          IS  108.000000E-15   18.220000E-15   20.140000E-15  363.152000E-15 
          EG                                                    1.15135      
          BF  385.7           324.4           315.3           272.001        
          NF     .99             .9932           .9974           .981175     
         VAF   31.29           82              39.15            8.02311      
         IKF     .3603           .109            .079            .255979     
         ISE   27.130000E-15  289.400000E-18    6.578000E-15    1.395810E-09 
          NE    1.4             1.4             1.45            2.64418      
          BR   20.57            8.29            8.68           26.8791       
          NR     .9849           .9931           .9952           .990094     
         VAR   11.62           17.9             9.5            38.8632       
         IKR     .054            .09             .09            2.55979      
         ISC  506.200000E-15    9.982000E-12   16.330000E-15  254.712000E-15 
          NC    1.295           1.763           1.15            1.09617      
         ISS    0               0               0               0            
          RB    1              10              10             210.108        
         RBM     .5             5               5.000000E-06   10.000000E-06 
         IRB    1.000000E-06    5.000000E-06    5.000000E-06   13.167500E-06 
          RE     .1415           .649            .663            .03296      
          RC     .2623           .7014           .718            .164799     
         CJE   51.140000E-12   12.440000E-12   11.350000E-12  201.825000E-12 
         VJE     .8911           .7579           .7071           .360096     
         MJE     .4417           .3656           .3808           .350357     
         CJC   26.560000E-12    3.347000E-12    6.395000E-12  118.774000E-12 
         VJC     .62             .5463           .4951           .694849     
         MJC     .4836           .391            .44             .382715     
        XCJC     .459            .6193           .6288           .778775     
         CJS    0               0               0               0            
         VJS     .75             .75             .75             .75         
         MJS     .333            .333            .333            .5          
          FC     .99             .979            .9059           .9          
          TF  735.900000E-12  490.800000E-12  654.600000E-12    3.622020E-09 
         XTF    1.859           9.51            5.387         276.075        
         VTF    3.813           2.927           6.245            .608188     
         ITF     .4393           .3131           .2108          7.779510E-03 
          TR   50.000000E-09   90.000000E-09   55.000000E-09    2.029570E-06 
         XTB                                                     .709265     
         XTI                                                    4.43052      
          KF    0               0               0               0            
          AF    1               1               1               1            
          CN    2.2             2.42            2.2             2.2          
           D     .52             .87             .52             .52         


ERROR(ORPSIM-16550): Floating point computation failed during matrix solution. Possible solutions: 1)Ensure that all device parameters are in valid range. 2)Try using .options LIMIT

INTERNAL ERROR -- Overflow, Multiply(2.70723e+307, 10)

ABORTING SIMULATION
**** 11/16/24 12:11:28 *** PSpice 24.1.0 (4 September 2024) *** ID# 0 ********

 ** Profile: "SCHEMATIC1-Temperatura"  [ C:\Proiect 1\P1_Fraticiu_Vlad_2024_423D\Schematic\Schematic\stabilizator_ers_-pspicefiles\sc


 ****     JOB STATISTICS SUMMARY


******************************************************************************



Node counts:
  Top level (NUNODS)                =          30
  External (NCNODS)                 =          30
  Total (NUMNOD)                    =          70

Total device count (NUMEL)          =          41
  Diodes (D)                        =           4
  BJTs (Q)                          =          12
  Resistors (R)                     =          24
  Voltage Sources (V)               =           1

Number of subcircuits (X)           =           4

Matrix statistics:
  Matrix size (NSTOP)               =          71
  Initial no. elements (NTTAR)      =         281
  No. elements w/ fillin (NTTBR)    =         645
  No. fillins (IFILL)               =         364
  No. overflows (NTTOV)             =         129
  No. LU operations (IOPS)          =        2314
  Percent sparsity (PERSPA)         =      87.205

Analysis statistics:
  No. total time points (NUMTTP)    =           0
  No. rejected time points (NUMRTP) =           0
  No. iterations (NUMNIT)           =           0

Load Threads                        =           4

Runtime statistics:                       Seconds      Iterations
  Matrix load                       =        0.00
  Matrix solution                   =        0.00              59
  Readin                            =         .02
  General setup                     =        0.00
  CMI setup                     =        0.00
  Setup                             =        0.00
  DC sweep                          =        0.00            1019
  Bias point                        =        0.00               0
  AC and noise                      =        0.00               0
  Total transient analysis          =        0.00
  Output                            =        0.00
  Overhead                          =         .03
  Total job time (using Solver 1)   =         .03
